/*--------------------------------*- C++ -*----------------------------------*\
  =========                 |
  \\      /  F ield         | OpenFOAM: The Open Source CFD Toolbox
   \\    /   O peration     | Website:  https://openfoam.org
    \\  /    A nd           | Version:  8
     \\/     M anipulation  |
\*---------------------------------------------------------------------------*/
FoamFile
{
    version     2.0;
    format      ascii;
    class       volScalarField;
    location    "0";
    object      phiE;
}
// * * * * * * * * * * * * * * * * * * * * * * * * * * * * * * * * * * * * * //

dimensions      [1 2 -3 0 0 -1 0];

internalField   uniform 0;

boundaryField
{
    anode
    {
        type            fixedValue;
        value           uniform 300;
    }
    cathode
    {
        type            fixedValue;
        value           uniform 0;
    }
    InnerPole
    {
        type            fixedValue;
        value           uniform 0;
    }
    OuterPole
    {
        type            fixedValue;
        value           uniform 0;
    }
    freeSpace
    {
        type            zeroGradient;
    }
    centerline
    {
        type            symmetryPlane
    }
}


// ************************************************************************* //
